Lattice="3.902883052763795 0.0 0.0 0.0 3.568559100239552 0.0 0.0 0.0 1.9332813112017346" Properties=species:S:1:pos:R:3 pbc="F F F"
 OpenBabel07072214073D

  8  7  0  0  0  0  0  0  0  0999 V2000
    1.9514    1.1267    1.0700 C   0  0  0  0  0  0  0  0  0  0  0  0
    1.9514    2.5597    1.5766 C   0  0  0  0  0  2  0  0  0  0  0  0
    0.7920    0.4573    1.5433 O   0  0  0  0  0  0  0  0  0  0  0  0
    3.1109    0.4573    1.5433 O   0  0  0  0  0  0  0  0  0  0  0  0
    1.9514    1.1267    0.0000 H   0  0  0  0  0  0  0  0  0  0  0  0
    1.9514    3.5686    1.9333 H   0  0  0  0  0  0  0  0  0  0  0  0
    0.0000    0.0000    1.8666 H   0  0  0  0  0  0  0  0  0  0  0  0
    3.9029    0.0000    1.8666 H   0  0  0  0  0  0  0  0  0  0  0  0
  1  3  1  0  0  0  0
  1  4  1  0  0  0  0
  1  2  1  0  0  0  0
  2  6  1  0  0  0  0
  3  7  1  0  0  0  0
  4  8  1  0  0  0  0
  5  1  1  0  0  0  0
M  END
